@<TRIPOS>MOLECULE
ABD.mol2
143 145 1 0 0
SMALL
AMBER ff14SB


@<TRIPOS>ATOM
      1 O1         16.3933    1.7500    0.0000 O.3       1 UNK1   -0.3457
      2 O2         16.3933    3.7500    0.0000 O.3       1 UNK1   -0.3652
      3 O3         19.2705    3.2901   -0.6558 O.3       1 UNK1   -0.3920
      4 O4         15.8762   -1.3187    0.0229 O.3       1 UNK1   -0.3460
      5 O5         18.1071   -1.6004    1.0677 O.3       1 UNK1   -0.3438
      6 O6         14.1005    1.0255    0.9183 O.3       1 UNK1   -0.3928
      7 O7         20.1533    1.3491    0.9203 O.3       1 UNK1   -0.3314
      8 O8         19.9643    0.8483   -1.1492 O.2       1 UNK1   -0.2663
      9 O9         12.3907    1.5350   -0.9820 O.3       1 UNK1   -0.3903
     10 O10        16.3912   -3.4384    0.8474 O.3       1 UNK1   -0.3820
     11 O11        19.8796   -3.6767    0.4912 O.3       1 UNK1   -0.3845
     12 O12        12.4877    4.8705   -0.3274 O.3       1 UNK1   -0.3904
     13 O13         9.6818    1.6796   -0.9409 O.3       1 UNK1   -0.3930
     14 O14         7.8172    1.7606    0.8938 O.3       1 UNK1   -0.3925
     15 O15         5.1439    3.6458   -0.6805 O.3       1 UNK1   -0.3125
     16 O16         2.3615    1.7542   -0.7878 O.3       1 UNK1   -0.3925
     17 O17         5.9505    5.7577   -0.7921 O.2       1 UNK1   -0.2665
     18 N1         18.2139   -4.9125   -1.0774 N.4       1 UNK1    0.2378
     19 C1         16.3933    2.7500    0.0000 C.3       1 UNK1    0.1703
     20 C2         17.1952    0.9700   -1.0226 C.3       1 UNK1    0.0781
     21 C3         18.1254    1.7500    0.0000 C.3       1 UNK1    0.0974
     22 C4         18.1254    2.7500    0.0000 C.3       1 UNK1    0.0738
     23 C5         17.2472    3.3948   -1.1134 C.3       1 UNK1    0.0283
     24 C6         15.6066    3.1147    1.3837 C.3       1 UNK1    0.0275
     25 C7         15.8271    0.4718   -1.6291 C.3       1 UNK1    0.0012
     26 C8         14.4720    2.1296    1.5213 C.3       1 UNK1    0.0617
     27 C9         15.3019   -0.8550   -1.1474 C.3       1 UNK1    0.0667
     28 C10        19.4233    1.0686   -0.0639 C.2       1 UNK1    0.2666
     29 C11        13.3453    2.3479    0.5004 C.3       1 UNK1    0.0020
     30 C12        17.2594   -1.7500    0.0000 C.3       1 UNK1    0.1892
     31 C13        13.0681    2.6643   -0.9788 C.3       1 UNK1    0.0823
     32 C14        17.2594   -2.7500    0.0000 C.3       1 UNK1    0.1486
     33 C15        18.1111   -3.3448   -1.0420 C.3       1 UNK1    0.0338
     34 C16        18.9914   -2.7500    0.0000 C.3       1 UNK1    0.1239
     35 C17        18.9914   -1.7500    0.0000 C.3       1 UNK1    0.0894
     36 C18        12.3986    3.9249   -1.2003 C.3       1 UNK1    0.0800
     37 C19        14.1976   -1.6249   -1.7050 C.2       1 UNK1   -0.0080
     38 C20        11.1058    4.1249   -0.3390 C.3       1 UNK1   -0.0220
     39 C21        20.5338   -1.3816    0.5618 C.3       1 UNK1   -0.0357
     40 C22        10.0294    4.1372   -1.3874 C.3       1 UNK1   -0.0244
     41 C23        13.6739   -2.4493   -0.5767 C.1       1 UNK1   -0.0823
     42 C24         9.1618    2.9409   -1.0349 C.3       1 UNK1    0.0565
     43 C25         8.3393    3.7292   -0.0493 C.3       1 UNK1   -0.0003
     44 C26         7.3369    3.0453    0.8176 C.3       1 UNK1    0.0658
     45 C27        13.0552   -1.7546    0.3638 C.1       1 UNK1   -0.0699
     46 C28         6.5337    4.3412    1.0933 C.3       1 UNK1    0.0599
     47 C29         4.2690    1.7500    0.0000 C.3       1 UNK1    0.0089
     48 C30         3.4030    1.2500    0.0000 C.3       1 UNK1    0.0616
     49 C31         4.2690    2.7500    0.0000 C.3       1 UNK1    0.0694
     50 C32         3.4030    0.2500    0.0000 C.3       1 UNK1   -0.0174
     51 C33        12.6337   -2.2326    1.5267 C.1       1 UNK1   -0.0811
     52 C34         5.7247    4.7626   -0.1307 C.2       1 UNK1    0.2636
     53 C35         5.3465    1.2373   -1.1113 C.3       1 UNK1   -0.0575
     54 C36         3.2352    3.8254    0.6899 C.3       1 UNK1   -0.0377
     55 C37         2.0833   -0.5917   -0.4041 C.3       1 UNK1   -0.0600
     56 C38         4.0492   -0.6889    1.0337 C.2       1 UNK1   -0.0447
     57 C39        11.7131   -1.4595    2.0887 C.1       1 UNK1   -0.0163
     58 C40         4.4564   -2.1439    1.2413 C.1       1 UNK1   -0.0344
     59 C41        10.5935   -1.8701    1.5400 C.1       1 UNK1   -0.0807
     60 C42         5.4686   -2.6055    0.4845 C.1       1 UNK1   -0.0845
     61 C43         9.9469   -1.0314    0.7458 C.1       1 UNK1   -0.0660
     62 C44         6.3737   -1.7615    0.0416 C.1       1 UNK1   -0.0663
     63 C45         9.4218   -1.6010   -0.3219 C.1       1 UNK1   -0.0626
     64 C46         7.3974   -2.0625   -0.7435 C.1       1 UNK1   -0.0626
     65 C47         8.3038   -1.1127   -0.7947 C.1       1 UNK1   -0.0623
     66 H1         17.6577    1.2874   -1.9649 H         1 UNK1    0.0615
     67 H2         18.1254    1.1300    0.0000 H         1 UNK1    0.0464
     68 H3         18.1254    3.3700    0.0000 H         1 UNK1    0.0612
     69 H4         17.5503    4.4887   -1.3950 H         1 UNK1    0.0349
     70 H5         17.0581    3.0165   -2.1291 H         1 UNK1    0.0349
     71 H6         15.0293    4.0831    1.4790 H         1 UNK1    0.0349
     72 H7         16.2376    3.1026    2.2718 H         1 UNK1    0.0349
     73 H8         15.0432    1.2206   -1.6992 H         1 UNK1    0.0320
     74 H9         16.0684    0.3122   -2.6860 H         1 UNK1    0.0320
     75 H10        14.3007    1.0469    1.4268 H         1 UNK1    0.0604
     76 H11        15.3277   -1.4186   -2.0974 H         1 UNK1    0.0609
     77 H12        12.6474    2.8496    1.1513 H         1 UNK1    0.0321
     78 H13        13.9822    3.0796    0.0411 H         1 UNK1    0.0321
     79 H14        16.9303    4.0600    0.0000 H         1 UNK1    0.2137
     80 H15        17.2594   -1.1300    0.0000 H         1 UNK1    0.0955
     81 H16        18.9914    3.8700    0.0000 H         1 UNK1    0.2105
     82 H17        12.5422    2.0885   -1.7599 H         1 UNK1    0.0629
     83 H18        17.2594   -3.3700    0.0000 H         1 UNK1    0.0716
     84 H19        18.2068   -4.4227   -1.0894 H         1 UNK1    0.0908
     85 H20        19.6612   -2.7155   -0.8828 H         1 UNK1    0.0689
     86 H21        18.9914   -1.1300    0.0000 H         1 UNK1    0.0632
     87 H22        12.6803    4.8827   -0.7318 H         1 UNK1    0.0628
     88 H23        13.5838   -0.7230   -1.8338 H         1 UNK1    0.0337
     89 H24        14.1244    1.4400    0.0000 H         1 UNK1    0.2105
     90 H25        10.7433    4.8729    0.4765 H         1 UNK1    0.0295
     91 H26        10.9573    3.2421    0.2882 H         1 UNK1    0.0295
     92 H27        20.3944    1.4400    0.0000 H         1 UNK1    0.2214
     93 H28        21.3469   -2.1086    0.6757 H         1 UNK1    0.0258
     94 H29        21.1040   -0.7824   -0.1406 H         1 UNK1    0.0258
     95 H30        20.4992   -0.9180    1.5488 H         1 UNK1    0.0258
     96 H31         9.6237    5.1626   -1.3510 H         1 UNK1    0.0294
     97 H32        10.4183    4.0641   -2.4020 H         1 UNK1    0.0294
     98 H33        19.0703   -5.2342   -0.5578 H         1 UNK1    0.1966
     99 H34        17.4134   -5.3650   -0.5748 H         1 UNK1    0.1966
    100 H35        12.3923    1.4400    0.0000 H         1 UNK1    0.2106
    101 H36        16.3933   -3.8700    0.0000 H         1 UNK1    0.2110
    102 H37        13.9255   -3.4916   -0.4232 H         1 UNK1    0.0577
    103 H38         9.5934    1.9652   -1.2969 H         1 UNK1    0.0601
    104 H39        20.3944   -2.9400    0.0000 H         1 UNK1    0.2109
    105 H40        11.5263    4.5600    0.0000 H         1 UNK1    0.2106
    106 H41         8.9074    4.2805    0.6982 H         1 UNK1    0.0320
    107 H42         7.8980    4.4646   -0.7100 H         1 UNK1    0.0320
    108 H43         7.4806    1.9845    1.0622 H         1 UNK1    0.0607
    109 H44        12.7968   -0.7312    0.1223 H         1 UNK1    0.0616
    110 H45         4.2690    1.1300    0.0000 H         1 UNK1    0.0353
    111 H46         7.1462    5.2072    1.3836 H         1 UNK1    0.0400
    112 H47         5.8666    4.2040    1.9426 H         1 UNK1    0.0400
    113 H48        10.0021    1.4400    0.0000 H         1 UNK1    0.2105
    114 H49         3.4030    1.8700    0.0000 H         1 UNK1    0.0607
    115 H50         4.2690    3.3700    0.0000 H         1 UNK1    0.0611
    116 H51         2.7264    0.1133    0.8773 H         1 UNK1    0.0327
    117 H52        12.6296   -3.3157    1.6409 H         1 UNK1    0.0579
    118 H53         5.4502    0.1668   -1.2952 H         1 UNK1    0.0235
    119 H54         5.0463    1.5967   -2.1026 H         1 UNK1    0.0235
    120 H55         6.3609    1.5905   -0.9898 H         1 UNK1    0.0235
    121 H56         8.2700    1.4400    0.0000 H         1 UNK1    0.2105
    122 H57         3.6612    4.7064    1.1854 H         1 UNK1    0.0257
    123 H58         2.5726    4.2400   -0.0917 H         1 UNK1    0.0257
    124 H59         2.5650    3.3681    1.4204 H         1 UNK1    0.0257
    125 H60         1.1055   -0.1068   -0.2532 H         1 UNK1    0.0234
    126 H61         1.9707   -1.5311    0.1599 H         1 UNK1    0.0234
    127 H62         2.1341   -0.9034   -1.4482 H         1 UNK1    0.0234
    128 H63         4.1717   -0.9473   -0.0374 H         1 UNK1    0.0273
    129 H64         2.0000    1.4400    0.0000 H         1 UNK1    0.2105
    130 H65        11.8511   -0.3771    2.0488 H         1 UNK1    0.0353
    131 H66         4.4212   -1.1828    1.7526 H         1 UNK1    0.0310
    132 H67        10.4832   -2.9337    1.3204 H         1 UNK1    0.0579
    133 H68         5.5230   -3.6644    0.2326 H         1 UNK1    0.0576
    134 H69         9.8585    0.0292    0.9803 H         1 UNK1    0.0619
    135 H70         6.3429   -0.7419    0.4190 H         1 UNK1    0.0619
    136 H71         9.6518   -2.6433   -0.5285 H         1 UNK1    0.0623
    137 H72         7.6079   -3.1097   -0.9529 H         1 UNK1    0.0623
    138 H73         8.0294   -0.1081   -0.5170 H         1 UNK1    0.0623
    139 HN1        18.2483   -5.2352   -2.0339 H         1 UNK1    0.1966
    140 HC2        14.4233   -2.1726   -2.6200 H         1 UNK1    0.0337
    141 HC3         4.9862   -0.1713    1.2392 H         1 UNK1    0.0273
    142 HC4        11.6689   -1.7345    3.1425 H         1 UNK1    0.0353
    143 HC5         3.6557   -2.8477    1.4683 H         1 UNK1    0.0310
@<TRIPOS>BOND
     1    1   19 1
     2    1   20 1
     3   19    2 1
     4    2   79 1
     5   22    3 1
     6    3   81 1
     7   27    4 1
     8   30    4 1
     9    5   30 1
    10    5   35 1
    11   26    6 1
    12    6   89 1
    13    7   28 1
    14    7   92 1
    15    8   28 2
    16   31    9 1
    17    9  100 1
    18   32   10 1
    19   10  101 1
    20   34   11 1
    21   11  104 1
    22   36   12 1
    23   12  105 1
    24   42   13 1
    25   13  113 1
    26   44   14 1
    27   14  121 1
    28   15   49 1
    29   15   52 1
    30   48   16 1
    31   16  129 1
    32   17   52 2
    33   33   18 1
    34   18   98 1
    35   18   99 1
    36   19   23 1
    37   19   24 1
    38   20   21 1
    39   20   25 1
    40   20   66 1
    41   21   22 1
    42   21   28 1
    43   21   67 1
    44   22   23 1
    45   22   68 1
    46   23   69 1
    47   23   70 1
    48   24   26 1
    49   24   71 1
    50   24   72 1
    51   25   27 1
    52   25   73 1
    53   25   74 1
    54   26   29 1
    55   26   75 1
    56   27   37 1
    57   27   76 1
    58   29   31 1
    59   29   77 1
    60   29   78 1
    61   30   32 1
    62   30   80 1
    63   31   36 1
    64   31   82 1
    65   32   33 1
    66   32   83 1
    67   33   34 1
    68   33   84 1
    69   34   35 1
    70   34   85 1
    71   35   39 1
    72   35   86 1
    73   36   38 1
    74   36   87 1
    75   37   41 2
    76   37   88 1
    77   38   40 1
    78   38   90 1
    79   38   91 1
    80   39   93 1
    81   39   94 1
    82   39   95 1
    83   40   42 1
    84   40   96 1
    85   40   97 1
    86   41   45 2
    87   41  102 1
    88   42   43 1
    89   42  103 1
    90   43   44 1
    91   43  106 1
    92   43  107 1
    93   44   46 1
    94   44  108 1
    95   45   51 2
    96   45  109 1
    97   46   52 1
    98   46  111 1
    99   46  112 1
   100   47   48 1
   101   47   49 1
   102   47   53 1
   103   47  110 1
   104   48   50 1
   105   48  114 1
   106   49   54 1
   107   49  115 1
   108   50   55 1
   109   50   56 1
   110   50  116 1
   111   51   57 2
   112   51  117 1
   113   53  118 1
   114   53  119 1
   115   53  120 1
   116   54  122 1
   117   54  123 1
   118   54  124 1
   119   55  125 1
   120   55  126 1
   121   55  127 1
   122   56   58 2
   123   56  128 1
   124   57   59 2
   125   57  130 1
   126   58   60 2
   127   58  131 1
   128   59   61 2
   129   59  132 1
   130   60   62 2
   131   60  133 1
   132   61   63 2
   133   61  134 1
   134   62   64 2
   135   62  135 1
   136   63   65 2
   137   63  136 1
   138   64   65 2
   139   64  137 1
   140   65  138 1
   141  139   18 1
   142  140   37 1
   143  141   56 1
   144  142   57 1
   145  143   58 1
@<TRIPOS>SUBSTRUCTURE
     1 UNK1     1 RESIDUE           4 A     UNK1     0 ROOT
