@<TRIPOS>MOLECULE
BCD.mol2
147 154 1 0 0
SMALL
AMBER ff14SB


@<TRIPOS>ATOM
      1 O1         12.5201    1.8389    2.0169 O.3       1 UNK1   -0.3410
      2 O2          9.7263    6.3668    1.5821 O.3       1 UNK1   -0.3410
      3 O3         13.0410   -1.8524   -1.9510 O.3       1 UNK1   -0.3410
      4 O4          5.9639    4.1017   -0.9238 O.3       1 UNK1   -0.3410
      5 O5          9.8905   -5.3826   -1.8436 O.3       1 UNK1   -0.3410
      6 O6          3.0706    0.8826   -1.8372 O.3       1 UNK1   -0.3410
      7 O7          4.4607   -4.4807   -1.3608 O.3       1 UNK1   -0.3410
      8 O8         10.1331    4.1760    2.4353 O.3       1 UNK1   -0.3414
      9 O9         11.3066    1.2158   -0.4549 O.3       1 UNK1   -0.3414
     10 O10         7.6898    5.4913   -1.3950 O.3       1 UNK1   -0.3414
     11 O11        13.2826   -4.2852   -1.3288 O.3       1 UNK1   -0.3414
     12 O12         2.5034    2.9806   -0.9404 O.3       1 UNK1   -0.3414
     13 O13         7.5788   -5.9820   -2.6166 O.3       1 UNK1   -0.3414
     14 O14         2.6457   -2.9366   -2.0417 O.3       1 UNK1   -0.3414
     15 O15        13.4008    4.4076    0.3847 O.3       1 UNK1   -0.3874
     16 O16        14.7412   -0.5816   -0.5863 O.3       1 UNK1   -0.3874
     17 O17         7.5671    7.5453    0.3146 O.3       1 UNK1   -0.3874
     18 O18         9.6323   -2.3982    0.4120 O.3       1 UNK1   -0.3874
     19 O19         6.3438    1.8444    0.6808 O.3       1 UNK1   -0.3874
     20 O20         7.2292   -2.3355   -0.2220 O.3       1 UNK1   -0.3874
     21 O21         6.0580   -0.2283   -0.8926 O.3       1 UNK1   -0.3874
     22 O22        11.5682    5.8945    0.0872 O.3       1 UNK1   -0.3850
     23 O23        13.5256    1.8103    0.0000 O.3       1 UNK1   -0.3850
     24 O24         5.3597    6.0782    0.6999 O.3       1 UNK1   -0.3850
     25 O25        11.7486   -1.6149    0.6573 O.3       1 UNK1   -0.3850
     26 O26         4.1075    0.3639    0.9722 O.3       1 UNK1   -0.3850
     27 O27         8.4302   -4.4313    0.1538 O.3       1 UNK1   -0.3850
     28 O28         5.0495   -2.8591    0.5312 O.3       1 UNK1   -0.3850
     29 O29         9.4521    0.6556    1.0865 O.3       1 UNK1   -0.3936
     30 O30         9.2140   -0.4314   -1.0436 O.3       1 UNK1   -0.3936
     31 O31         8.1889    2.3891   -0.8733 O.3       1 UNK1   -0.3936
     32 O32        12.9414   -6.6597   -0.3079 O.3       1 UNK1   -0.3936
     33 O33         1.8154    5.0122   -0.0474 O.3       1 UNK1   -0.3936
     34 O34         6.0701   -7.4512   -0.4508 O.3       1 UNK1   -0.3936
     35 O35         0.7275   -1.8893   -0.3981 O.3       1 UNK1   -0.3936
     36 C1         12.0649    3.1544    2.2367 C.3       1 UNK1    0.1179
     37 C2          8.6406    5.6831    0.9711 C.3       1 UNK1    0.1179
     38 C3         12.8988   -0.4040   -1.4851 C.3       1 UNK1    0.1179
     39 C4          4.8056    3.6626   -0.2069 C.3       1 UNK1    0.1179
     40 C5         10.8602   -4.9072   -0.7894 C.3       1 UNK1    0.1179
     41 C6          3.2885   -0.5208   -1.5481 C.3       1 UNK1    0.1179
     42 C7          5.9204   -4.6525   -1.2401 C.3       1 UNK1    0.1179
     43 C8         12.8636    4.4284    1.6913 C.3       1 UNK1    0.1137
     44 C9         13.5256   -0.1938    0.0000 C.3       1 UNK1    0.1137
     45 C10         7.5317    6.6410    1.2893 C.3       1 UNK1    0.1137
     46 C11        10.7819   -3.5224    0.1762 C.3       1 UNK1    0.1137
     47 C12         5.1787    2.2460   -0.1029 C.3       1 UNK1    0.1137
     48 C13         6.9815   -3.4071   -1.3450 C.3       1 UNK1    0.1137
     49 C14         4.8026   -1.0396   -1.3060 C.3       1 UNK1    0.1137
     50 C15        10.6414    5.5299    2.2865 C.3       1 UNK1    0.1867
     51 C16        12.2448    1.0301    0.7494 C.3       1 UNK1    0.1867
     52 C17         6.4548    5.3926   -0.7381 C.3       1 UNK1    0.1867
     53 C18        13.1318   -2.9175   -0.9083 C.3       1 UNK1    0.1867
     54 C19         2.7646    1.6362   -0.6004 C.3       1 UNK1    0.1867
     55 C20        11.9365    5.6634    1.4899 C.3       1 UNK1    0.1333
     56 C21         8.4853   -5.6151   -1.5630 C.3       1 UNK1    0.1867
     57 C22        13.5256    0.8103    0.0000 C.3       1 UNK1    0.1333
     58 C23         4.0362   -3.1918   -1.7187 C.3       1 UNK1    0.1867
     59 C24         6.5308    5.6532    0.8189 C.3       1 UNK1    0.1333
     60 C25        11.8238   -2.6830   -0.2025 C.3       1 UNK1    0.1333
     61 C26         3.9327    1.5834    0.3920 C.3       1 UNK1    0.1333
     62 C27         8.2186   -4.1972   -1.1880 C.3       1 UNK1    0.1333
     63 C28         4.3128   -2.2954   -0.5179 C.3       1 UNK1    0.1333
     64 C29        10.6916    3.1158    1.6849 C.3       1 UNK1    0.1127
     65 C30        11.5068    0.3249   -1.6372 C.3       1 UNK1    0.1127
     66 C31         8.7755    5.1259   -0.5718 C.3       1 UNK1    0.1127
     67 C32        12.1445   -5.0956   -1.6775 C.3       1 UNK1    0.1127
     68 C33         3.5650    3.9856   -1.0916 C.3       1 UNK1    0.1127
     69 C34         6.1612   -5.8222   -2.2558 C.3       1 UNK1    0.1127
     70 C35         2.3072   -1.5079   -2.2823 C.3       1 UNK1    0.1127
     71 C36         9.7146    1.8583    1.8903 C.3       1 UNK1    0.0721
     72 C37        10.2468   -0.4983   -2.0335 C.3       1 UNK1    0.0721
     73 C38         9.0313    3.5796   -0.7303 C.3       1 UNK1    0.0721
     74 C39        12.6273   -6.5791   -1.6865 C.3       1 UNK1    0.0721
     75 C40         2.9251    5.3842   -0.7530 C.3       1 UNK1    0.0721
     76 C41         5.4973   -7.1240   -1.7067 C.3       1 UNK1    0.0721
     77 C42         0.8753   -1.2853   -1.7018 C.3       1 UNK1    0.0721
     78 H1         11.9813    3.2648    3.3203 H         1 UNK1    0.0662
     79 H2          8.3611    4.8510    1.6057 H         1 UNK1    0.0662
     80 H3         13.5046    0.1279   -2.2395 H         1 UNK1    0.0662
     81 H4          4.6729    3.9702    0.8338 H         1 UNK1    0.0662
     82 H5         10.8181   -5.7032   -0.0373 H         1 UNK1    0.0662
     83 H6          2.7936   -0.5741   -0.5838 H         1 UNK1    0.0662
     84 H7          6.0399   -5.0454   -0.2254 H         1 UNK1    0.0662
     85 H8         13.6605    4.6794    2.3966 H         1 UNK1    0.0659
     86 H9         13.5256   -0.8138    0.0000 H         1 UNK1    0.0659
     87 H10         7.4449    7.0356    2.3047 H         1 UNK1    0.0659
     88 H11        10.9918   -3.9083    1.1813 H         1 UNK1    0.0659
     89 H12         5.4198    2.0092   -1.1573 H         1 UNK1    0.0659
     90 H13         6.9478   -2.9520   -2.3374 H         1 UNK1    0.0659
     91 H14         5.1178   -1.2771   -2.3226 H         1 UNK1    0.0659
     92 H15        10.7562    5.8938    3.3119 H         1 UNK1    0.0953
     93 H16        11.8460    0.2452    1.3772 H         1 UNK1    0.0953
     94 H17         5.7996    6.0797   -1.3210 H         1 UNK1    0.0953
     95 H18        14.0102   -2.7567   -0.2685 H         1 UNK1    0.0953
     96 H19         1.8568    1.2213   -0.1256 H         1 UNK1    0.0953
     97 H20        12.4578    6.5605    1.8378 H         1 UNK1    0.0684
     98 H21         8.3752   -6.3572   -0.7441 H         1 UNK1    0.0953
     99 H22        14.2764    0.8723    0.8119 H         1 UNK1    0.0684
    100 H23         4.6002   -2.9805   -2.6377 H         1 UNK1    0.0953
    101 H24         6.4781    4.7577    1.4439 H         1 UNK1    0.0684
    102 H25        11.2849   -2.4498   -1.0646 H         1 UNK1    0.0684
    103 H26         4.3813    0.9853   -0.2906 H         1 UNK1    0.0684
    104 H27         8.9591   -3.5238   -1.6286 H         1 UNK1    0.0684
    105 H28         3.3732   -2.1858    0.0257 H         1 UNK1    0.0684
    106 H29        10.9009    3.3749    0.6383 H         1 UNK1    0.0658
    107 H30        11.6403    1.0082   -2.4794 H         1 UNK1    0.0658
    108 H31         9.5899    5.6394   -1.0782 H         1 UNK1    0.0658
    109 H32        11.8948   -4.8190   -2.7060 H         1 UNK1    0.0658
    110 H33         3.8598    3.9527   -2.1397 H         1 UNK1    0.0658
    111 H34         5.6435   -5.5837   -3.1867 H         1 UNK1    0.0658
    112 H35         2.3185   -1.3033   -3.3553 H         1 UNK1    0.0658
    113 H36        10.3519    1.3251    2.5879 H         1 UNK1    0.0592
    114 H37         9.7941    1.9860    0.8466 H         1 UNK1    0.0592
    115 H38         9.8556   -0.1097   -2.9726 H         1 UNK1    0.0592
    116 H39        10.4438   -1.5278   -2.3094 H         1 UNK1    0.0592
    117 H40         8.9661    3.5166    0.3132 H         1 UNK1    0.0592
    118 H41        10.0198    3.3939   -1.1532 H         1 UNK1    0.0592
    119 H42        12.0253   -7.4202   -1.3262 H         1 UNK1    0.0592
    120 H43        11.8226   -6.9212   -2.3422 H         1 UNK1    0.0592
    121 H44         2.7364    6.0266   -1.6100 H         1 UNK1    0.0592
    122 H45         3.3685    5.9527    0.0345 H         1 UNK1    0.0592
    123 H46         5.5896   -7.9642   -2.3966 H         1 UNK1    0.0592
    124 H47         4.4265   -6.9446   -1.5422 H         1 UNK1    0.0592
    125 H48         0.1219   -1.7023   -2.3730 H         1 UNK1    0.0592
    126 H49         0.6765   -0.2121   -1.6069 H         1 UNK1    0.0592
    127 H50        12.7773    5.1257    0.0000 H         1 UNK1    0.2107
    128 H51        14.9285   -0.0038    0.0000 H         1 UNK1    0.2107
    129 H52         7.4566    6.5871    0.0000 H         1 UNK1    0.2107
    130 H53         9.4333   -1.3449    0.0000 H         1 UNK1    0.2107
    131 H54         6.9849    1.3437    0.0000 H         1 UNK1    0.2107
    132 H55         7.7926   -1.4230    0.0000 H         1 UNK1    0.2107
    133 H56         6.6918   -0.2096    0.0000 H         1 UNK1    0.2107
    134 H57        10.5767    5.7730    0.0000 H         1 UNK1    0.2109
    135 H58        14.0625    2.1203    0.0000 H         1 UNK1    0.2109
    136 H59         5.5785    5.2702    0.0000 H         1 UNK1    0.2109
    137 H60        12.0497   -0.7817    0.0000 H         1 UNK1    0.2109
    138 H61         4.3686    0.0631    0.0000 H         1 UNK1    0.2109
    139 H62         9.3260   -3.8097    0.0000 H         1 UNK1    0.2109
    140 H63         5.9599   -3.0179    0.0000 H         1 UNK1    0.2109
    141 H64         9.7945    0.5835    0.0000 H         1 UNK1    0.2102
    142 H65         9.5175   -0.5038    0.0000 H         1 UNK1    0.2102
    143 H66         8.1220    1.7396    0.0000 H         1 UNK1    0.2102
    144 H67        12.4161   -5.8871    0.0000 H         1 UNK1    0.2102
    145 H68         2.3267    4.1420    0.0000 H         1 UNK1    0.2102
    146 H69         6.1011   -6.5871    0.0000 H         1 UNK1    0.2102
    147 H70         1.5997   -2.1069    0.0000 H         1 UNK1    0.2102
@<TRIPOS>BOND
     1    1   36 1
     2    1   51 1
     3    2   37 1
     4    2   50 1
     5    3   38 1
     6    3   53 1
     7    4   39 1
     8    4   52 1
     9    5   40 1
    10    5   56 1
    11    6   41 1
    12    6   54 1
    13    7   42 1
    14    7   58 1
    15    8   50 1
    16    8   64 1
    17    9   51 1
    18    9   65 1
    19   10   52 1
    20   10   66 1
    21   11   53 1
    22   11   67 1
    23   12   54 1
    24   12   68 1
    25   13   56 1
    26   13   69 1
    27   14   58 1
    28   14   70 1
    29   43   15 1
    30   15  127 1
    31   44   16 1
    32   16  128 1
    33   45   17 1
    34   17  129 1
    35   46   18 1
    36   18  130 1
    37   47   19 1
    38   19  131 1
    39   48   20 1
    40   20  132 1
    41   49   21 1
    42   21  133 1
    43   55   22 1
    44   22  134 1
    45   57   23 1
    46   23  135 1
    47   59   24 1
    48   24  136 1
    49   60   25 1
    50   25  137 1
    51   61   26 1
    52   26  138 1
    53   62   27 1
    54   27  139 1
    55   63   28 1
    56   28  140 1
    57   29   71 1
    58   29  141 1
    59   30   72 1
    60   30  142 1
    61   31   73 1
    62   31  143 1
    63   32   74 1
    64   32  144 1
    65   33   75 1
    66   33  145 1
    67   34   76 1
    68   34  146 1
    69   35   77 1
    70   35  147 1
    71   36   43 1
    72   36   64 1
    73   36   78 1
    74   37   45 1
    75   37   66 1
    76   37   79 1
    77   38   44 1
    78   38   65 1
    79   38   80 1
    80   39   47 1
    81   39   68 1
    82   39   81 1
    83   40   46 1
    84   40   67 1
    85   40   82 1
    86   41   49 1
    87   41   70 1
    88   41   83 1
    89   42   48 1
    90   42   69 1
    91   42   84 1
    92   43   55 1
    93   43   85 1
    94   44   57 1
    95   44   86 1
    96   45   59 1
    97   45   87 1
    98   46   60 1
    99   46   88 1
   100   47   61 1
   101   47   89 1
   102   48   62 1
   103   48   90 1
   104   49   63 1
   105   49   91 1
   106   50   55 1
   107   50   92 1
   108   51   57 1
   109   51   93 1
   110   52   59 1
   111   52   94 1
   112   53   60 1
   113   53   95 1
   114   54   61 1
   115   54   96 1
   116   55   97 1
   117   56   62 1
   118   56   98 1
   119   57   99 1
   120   58   63 1
   121   58  100 1
   122   59  101 1
   123   60  102 1
   124   61  103 1
   125   62  104 1
   126   63  105 1
   127   64   71 1
   128   64  106 1
   129   65   72 1
   130   65  107 1
   131   66   73 1
   132   66  108 1
   133   67   74 1
   134   67  109 1
   135   68   75 1
   136   68  110 1
   137   69   76 1
   138   69  111 1
   139   70   77 1
   140   70  112 1
   141   71  113 1
   142   71  114 1
   143   72  115 1
   144   72  116 1
   145   73  117 1
   146   73  118 1
   147   74  119 1
   148   74  120 1
   149   75  121 1
   150   75  122 1
   151   76  123 1
   152   76  124 1
   153   77  125 1
   154   77  126 1
@<TRIPOS>SUBSTRUCTURE
     1 UNK1     1 RESIDUE           4 A     UNK1     0 ROOT
